* Top cell name: core_top

.SUBCKT nand2 in0 in1 out vdd vss
    Mm1 net9 in1 vss vss n_mos l=30n w=200n m=1 nf=1
    Mm0 out in0 net9 vss n_mos l=30n w=200n m=1 nf=1
    Mm3 out in1 vdd vdd p_mos l=30n w=100n m=1 nf=1
    Mm2 out in0 vdd vdd p_mos l=30n w=100n m=1 nf=1
.ENDS

.SUBCKT inv in out vdd vss
    Mm0 out in vss vss n_mos l=30n w=100n m=1 nf=1
    Mm1 out in vdd vdd p_mos l=30n w=100n m=1 nf=1
.ENDS

.SUBCKT mux2 in0 in1 out sel vdd vss
    Xi2 in0 net7 net9 vdd vss nand2
    Xi1 in1 sel net10 vdd vss nand2
    Xi0 net10 net9 out vdd vss nand2
    Xi3 sel net7 vdd vss inv
.ENDS

.SUBCKT mux4 in<0> in<1> in<2> in<3> out sel<0> sel<1> vdd vss
    Xi2 in<2> in<3> net5 sel<0> vdd vss mux2
    Xi1 in<0> in<1> net6 sel<0> vdd vss mux2
    Xi0 net6 net5 out sel<1> vdd vss mux2
.ENDS

.SUBCKT nand3_r in0 in1 in2 out rst vdd vss
    Mm3 out rst vss vss n_mos l=30n w=300n m=1 nf=1
    Mm2 net6 in2 vss vss n_mos l=30n w=300n m=1 nf=1
    Mm1 net7 in1 net6 vss n_mos l=30n w=300n m=1 nf=1
    Mm0 out in0 net7 vss n_mos l=30n w=300n m=1 nf=1
    Mm7 net21 rst vdd vdd p_mos l=30n w=200n m=1 nf=1
    Mm6 out in2 net21 vdd p_mos l=30n w=200n m=1 nf=1
    Mm5 out in1 net21 vdd p_mos l=30n w=200n m=1 nf=1
    Mm4 out in0 net21 vdd p_mos l=30n w=200n m=1 nf=1
.ENDS

.SUBCKT nand3 in0 in1 in2 out vdd vss
    Mm4 net016 in2 vss vss n_mos l=30n w=300n m=1 nf=1
    Mm1 net3 in1 net016 vss n_mos l=30n w=300n m=1 nf=1
    Mm0 out in0 net3 vss n_mos l=30n w=300n m=1 nf=1
    Mm5 out in2 vdd vdd p_mos l=30n w=100n m=1 nf=1
    Mm3 out in1 vdd vdd p_mos l=30n w=100n m=1 nf=1
    Mm2 out in0 vdd vdd p_mos l=30n w=100n m=1 nf=1
.ENDS

.SUBCKT dff_st_ar clk d q q' rst rst' vdd vss
    Xi5 q n1 q' vdd vss nand2
    Xi4 n0 q' q vdd vss nand2
    Xi3 n1 d n3 vdd vss nand2
    Xi2 n3 n0 n2 vdd vss nand2
    Xi6 clk n0 n3 n1 rst vdd vss nand3_r
    Xi7 clk n2 rst' n0 vdd vss nand3
.ENDS

.SUBCKT tff_st_ar clk q q' rst rst' vdd vss
    Xi8 clk q' q q' rst rst' vdd vss dff_st_ar
.ENDS

.SUBCKT freq_scaler in out<0> out<1> out<2> out<3> out<4> out<5> out<6> out<7> rst rst' vdd vss
    Xi11 out<6> out<7> net32 rst rst' vdd vss tff_st_ar
    Xi10 out<5> out<6> net34 rst rst' vdd vss tff_st_ar
    Xi9 out<4> out<5> net35 rst rst' vdd vss tff_st_ar
    Xi8 out<3> out<4> net36 rst rst' vdd vss tff_st_ar
    Xi7 out<2> out<3> net37 rst rst' vdd vss tff_st_ar
    Xi6 out<1> out<2> net38 rst rst' vdd vss tff_st_ar
    Xi5 out<0> out<1> net39 rst rst' vdd vss tff_st_ar
    Xi4 net16 out<0> net40 rst rst' vdd vss tff_st_ar
    Xi3 net14 net16 net41 rst rst' vdd vss tff_st_ar
    Xi2 net12 net14 net42 rst rst' vdd vss tff_st_ar
    Xi1 in net12 net43 rst rst' vdd vss tff_st_ar
.ENDS

.SUBCKT mux8 in<0> in<1> in<2> in<3> in<4> in<5> in<6> in<7> out sel<0> sel<1> sel<2> vdd vss
    Xi1 in<4> in<5> in<6> in<7> net4 sel<0> sel<1> vdd vss mux4
    Xi0 in<0> in<1> in<2> in<3> net5 sel<0> sel<1> vdd vss mux4
    Xi2 net5 net4 out sel<2> vdd vss mux2
.ENDS

.SUBCKT core_control conf_rochoose<0> conf_rochoose<1> conf_roen conf_rofreq<0> conf_rofreq<1>
                     + conf_rofreq<2> conf_rst conf_rst' ext_rst ext_rst' ro_in<0> ro_in<1> ro_in<2>
                     + ro_in<3> ro_out vdd vss
    Xi0 ro_in<0> ro_in<1> ro_in<2> ro_in<3> net1 conf_rochoose<0> conf_rochoose<1> vdd vss mux4
    Xi1 net07 net08<0> net08<1> net08<2> net08<3> net08<4> net08<5> net08<6> net08<7> ext_rst
        + ext_rst' vdd vss freq_scaler
    Xi2 net08<0> net08<1> net08<2> net08<3> net08<4> net08<5> net08<6> net08<7> ro_out
        + conf_rofreq<0> conf_rofreq<1> conf_rofreq<2> vdd vss mux8
    Xi3 net1 conf_roen net07 vdd vss nand2
    Xi5 ext_rst ext_rst' vdd vss inv
    Xi4 conf_rst conf_rst' vdd vss inv
.ENDS

.SUBCKT nor5 in0 in1 in2 in3 in4 out vdd vss
    Mm4 out in4 vss vss n_mos l=30n w=100n m=1 nf=1
    Mm3 out in0 vss vss n_mos l=30n w=100n m=1 nf=1
    Mm2 out in1 vss vss n_mos l=30n w=100n m=1 nf=1
    Mm1 out in3 vss vss n_mos l=30n w=100n m=1 nf=1
    Mm0 out in2 vss vss n_mos l=30n w=100n m=1 nf=1
    Mm9 net12 in4 vdd vdd p_mos l=30n w=400n m=1 nf=1
    Mm8 net13 in3 net12 vdd p_mos l=30n w=400n m=1 nf=1
    Mm7 net14 in2 net13 vdd p_mos l=30n w=400n m=1 nf=1
    Mm6 net15 in1 net14 vdd p_mos l=30n w=400n m=1 nf=1
    Mm5 out in0 net15 vdd p_mos l=30n w=400n m=1 nf=1
.ENDS

.SUBCKT nor2 in0 in1 out vdd vss
    Mm1 out in1 vss vss n_mos l=30n w=100n m=1 nf=1
    Mm0 out in0 vss vss n_mos l=30n w=100n m=1 nf=1
    Mm3 net5 in1 vdd vdd p_mos l=30n w=200n m=1 nf=1
    Mm2 out in0 net5 vdd p_mos l=30n w=200n m=1 nf=1
.ENDS

.SUBCKT nand2_wide in0 in1 out vdd vss
    Mm1 net9 in1 vss vss n_mos l=30n w=400n m=2 nf=1
    Mm0 out in0 net9 vss n_mos l=30n w=400n m=2 nf=1
    Mm3 out in1 vdd vdd p_mos l=30n w=400n m=1 nf=1
    Mm2 out in0 vdd vdd p_mos l=30n w=400n m=1 nf=1
.ENDS

.SUBCKT nor2_wide in0 in1 out vdd vss
    Mm1 out in1 vss vss n_mos l=30n w=400n m=1 nf=1
    Mm0 out in0 vss vss n_mos l=30n w=400n m=1 nf=1
    Mm3 net5 in1 vdd vdd p_mos l=30n w=400n m=2 nf=1
    Mm2 out in0 net5 vdd p_mos l=30n w=400n m=2 nf=1
.ENDS

.SUBCKT inv_dh in out vdd vss
    Mm0 out in vss vss n_mos l=30n w=200n m=1 nf=1
    Mm1 out in vdd vdd p_mos l=30n w=100n m=1 nf=1
.ENDS

.SUBCKT dff_st_ar_dh clk q q' rst rst' vdd vss
    Xi5 q n1 q' vdd vss nand2
    Xi4 n0 q' q vdd vss nand2
    Xi2 n3 n0 n2 vdd vss nand2
    Xi6 clk n0 n3 n1 rst vdd vss nand3_r
    Xi7 clk n2 rst' n0 vdd vss nand3
    Xi8 n1 n3 vdd vss inv_dh
.ENDS

.SUBCKT rst_start conf_fb dc_rst_0 dc_rst_1 edge_0 edge_1 rst rst' rst_glob rst_glob' start_glob
                  + start_loc vdd vss
    Xi61 start_glob start_loc_int start_loc conf_fb vdd vss mux2
    Xi55 start_glob_level q_2' start_mux start_sel vdd vss mux2
    Xi48 rst_glob' ar_2_loc' ar_2 vdd vss nand2
    Xi47 rst_glob' ar_1_loc' ar_1 vdd vss nand2
    Xi40 q_1 q_2' rst_loc' vdd vss nand2
    Xi38 edge_0 edge_1 nand vdd vss nand2
    Xi45 q_1' q_2 ar_2_loc' vdd vss nand2
    Xi44 q_1 q_2 ar_1_loc' vdd vss nand2
    Xi63 edge_0 edge_1 dc_rst_0 dc_rst_1 q_1' nor vdd vss nor5
    Xi57 net038 net032 vdd vss inv
    Xi56 net031 net038 vdd vss inv
    Xi37 nand and vdd vss inv
    Xi50 rst_glob ar_2_loc ar_2' vdd vss nor2
    Xi49 rst_glob ar_1_loc ar_1' vdd vss nor2
    Xi43 q_1 q_2' ar_2_loc vdd vss nor2
    Xi42 q_1' q_2' ar_1_loc vdd vss nor2
    Xi41 q_1' q_2 rst_loc vdd vss nor2
    Xi59 rst_glob' rst_loc' rst vdd vss nand2_wide
    Xi60 rst_glob rst_loc rst' vdd vss nor2_wide
    Xi58 net032 start_loc_int net039 rst rst' vdd vss dff_st_ar_dh
    Xi53 start_glob start_glob_level net040 rst_glob rst_glob' vdd vss dff_st_ar_dh
    Xi54 start_loc_int start_sel net034 rst_glob rst_glob' vdd vss dff_st_ar_dh
    Xi36 nor q_2 q_2' ar_2 ar_2' vdd vss dff_st_ar_dh
    Xi46 start_mux net031 net023 rst rst' vdd vss dff_st_ar_dh
    Xi35 and q_1 q_1' ar_1 ar_1' vdd vss dff_st_ar_dh
.ENDS

.SUBCKT first_edge edge out out' rst rst' vdd vss
    Xi0 edge out out' rst rst' vdd vss dff_st_ar_dh
.ENDS

.SUBCKT enable_n edge en rst rst' rst_glob rst_glob' start vdd vss
    Xi7 startl' edgel' edge_rst_loc' vdd vss nand2
    Xi8 edge_rst_loc' rst_glob' edge_rst vdd vss nand2
    Xi4 edgel startl en vdd vss nand2
    Xi9 edge_rst_loc rst_glob edge_rst' vdd vss nor2
    Xi5 startl edgel edge_rst_loc vdd vss nor2
    Xi2 edge edgel' edgel edge_rst edge_rst' vdd vss dff_st_ar_dh
    Xi0 start startl startl' rst rst' vdd vss dff_st_ar_dh
.ENDS

.SUBCKT freq_scaler_248 clk out<0> out<1> out<2> rst rst' vdd vss
    Xi2 out<1> net6 out<2> rst rst' vdd vss tff_st_ar
    Xi1 clk net9 out<0> rst rst' vdd vss tff_st_ar
    Xi0 out<0> net13 out<1> rst rst' vdd vss tff_st_ar
.ENDS

.SUBCKT inv_ch_2 conf conf' in out vdd vss
    Mm4 net12 in net015 vdd p_mos l=30n w=100n m=1 nf=1
    Mm2 net015 conf' vdd vdd p_mos l=30n w=100n m=1 nf=1
    Mm0 out in net12 vdd p_mos l=30n w=100n m=1 nf=1
    Mm5 net020 in net014 vss n_mos l=30n w=100n m=1 nf=1
    Mm3 net014 conf vss vss n_mos l=30n w=100n m=1 nf=1
    Mm1 out in net020 vss n_mos l=30n w=100n m=1 nf=1
.ENDS

.SUBCKT inv_ch_8 conf conf' in out vdd vss
    Mm13 net030 in net029 vdd p_mos l=30n w=100n m=1 nf=1
    Mm12 net031 in net030 vdd p_mos l=30n w=100n m=1 nf=1
    Mm11 net018 in net031 vdd p_mos l=30n w=100n m=1 nf=1
    Mm10 net021 in net018 vdd p_mos l=30n w=100n m=1 nf=1
    Mm7 net015 in net016 vdd p_mos l=30n w=100n m=1 nf=1
    Mm6 net016 in net021 vdd p_mos l=30n w=100n m=1 nf=1
    Mm4 net12 in net015 vdd p_mos l=30n w=100n m=1 nf=1
    Mm2 net029 conf' vdd vdd p_mos l=30n w=100n m=1 nf=1
    Mm0 out in net12 vdd p_mos l=30n w=100n m=1 nf=1
    Mm17 net019 in net035 vss n_mos l=30n w=100n m=1 nf=1
    Mm16 net035 in net037 vss n_mos l=30n w=100n m=1 nf=1
    Mm15 net037 in net036 vss n_mos l=30n w=100n m=1 nf=1
    Mm14 net036 in net014 vss n_mos l=30n w=100n m=1 nf=1
    Mm9 net027 in net019 vss n_mos l=30n w=100n m=1 nf=1
    Mm8 net017 in net027 vss n_mos l=30n w=100n m=1 nf=1
    Mm5 net020 in net017 vss n_mos l=30n w=100n m=1 nf=1
    Mm3 net014 conf vss vss n_mos l=30n w=100n m=1 nf=1
    Mm1 out in net020 vss n_mos l=30n w=100n m=1 nf=1
.ENDS

.SUBCKT inv_ch_4 conf conf' in out vdd vss
    Mm7 net015 in net016 vdd p_mos l=30n w=100n m=1 nf=1
    Mm6 net016 in net021 vdd p_mos l=30n w=100n m=1 nf=1
    Mm4 net12 in net015 vdd p_mos l=30n w=100n m=1 nf=1
    Mm2 net021 conf' vdd vdd p_mos l=30n w=100n m=1 nf=1
    Mm0 out in net12 vdd p_mos l=30n w=100n m=1 nf=1
    Mm9 net027 in net014 vss n_mos l=30n w=100n m=1 nf=1
    Mm8 net017 in net027 vss n_mos l=30n w=100n m=1 nf=1
    Mm5 net020 in net017 vss n_mos l=30n w=100n m=1 nf=1
    Mm3 net014 conf vss vss n_mos l=30n w=100n m=1 nf=1
    Mm1 out in net020 vss n_mos l=30n w=100n m=1 nf=1
.ENDS

.SUBCKT inv_ch_1 conf conf' in out vdd vss
    Mm2 net12 conf' vdd vdd p_mos l=30n w=100n m=1 nf=1
    Mm0 out in net12 vdd p_mos l=30n w=100n m=1 nf=1
    Mm3 net014 conf vss vss n_mos l=30n w=100n m=1 nf=1
    Mm1 out in net014 vss n_mos l=30n w=100n m=1 nf=1
.ENDS

.SUBCKT inv_ch_8l_mod in out vdd vss
    Mm58 int_p in net026 vdd p_mos l=30n w=100n m=1 nf=1
    Mm59 net026 in net047 vdd p_mos l=30n w=100n m=1 nf=1
    Mm60 net047 in net025 vdd p_mos l=30n w=100n m=1 nf=1
    Mm61 net025 in net050 vdd p_mos l=30n w=100n m=1 nf=1
    Mm62 net050 in net046 vdd p_mos l=30n w=100n m=1 nf=1
    Mm63 net046 in net028 vdd p_mos l=30n w=100n m=1 nf=1
    Mm64 net028 in net029 vdd p_mos l=30n w=100n m=1 nf=1
    Mm65 net029 in vdd vdd p_mos l=30n w=100n m=1 nf=1
    Mm13 net030 in int_p vdd p_mos l=30n w=100n m=1 nf=1
    Mm12 net031 in net030 vdd p_mos l=30n w=100n m=1 nf=1
    Mm11 net018 in net031 vdd p_mos l=30n w=100n m=1 nf=1
    Mm10 net021 in net018 vdd p_mos l=30n w=100n m=1 nf=1
    Mm7 net015 in net016 vdd p_mos l=30n w=100n m=1 nf=1
    Mm6 net016 in net021 vdd p_mos l=30n w=100n m=1 nf=1
    Mm4 net12 in net015 vdd p_mos l=30n w=100n m=1 nf=1
    Mm0 out in net12 vdd p_mos l=30n w=100n m=1 nf=1
    Mm66 net055 in vss vss n_mos l=30n w=100n m=1 nf=1
    Mm67 net056 in net055 vss n_mos l=30n w=100n m=1 nf=1
    Mm68 net033 in net056 vss n_mos l=30n w=100n m=1 nf=1
    Mm69 net032 in net033 vss n_mos l=30n w=100n m=1 nf=1
    Mm70 net061 in net032 vss n_mos l=30n w=100n m=1 nf=1
    Mm71 net059 in net061 vss n_mos l=30n w=100n m=1 nf=1
    Mm72 net057 in net059 vss n_mos l=30n w=100n m=1 nf=1
    Mm73 int_n in net057 vss n_mos l=30n w=100n m=1 nf=1
    Mm17 net019 in net035 vss n_mos l=30n w=100n m=1 nf=1
    Mm16 net035 in net037 vss n_mos l=30n w=100n m=1 nf=1
    Mm15 net037 in net036 vss n_mos l=30n w=100n m=1 nf=1
    Mm14 net036 in int_n vss n_mos l=30n w=100n m=1 nf=1
    Mm9 net027 in net019 vss n_mos l=30n w=100n m=1 nf=1
    Mm8 net017 in net027 vss n_mos l=30n w=100n m=1 nf=1
    Mm5 net020 in net017 vss n_mos l=30n w=100n m=1 nf=1
    Mm1 out in net020 vss n_mos l=30n w=100n m=1 nf=1
.ENDS

.SUBCKT dc_ch_4 conf'<0> conf'<1> conf'<2> conf'<3> conf'<4> conf'<5> conf'<6> conf'<7> conf'<8>
                + conf'<9> conf'<10> conf'<11> conf'<12> conf'<13> conf'<14> conf'<15> conf<0>
                + conf<1> conf<2> conf<3> conf<4> conf<5> conf<6> conf<7> conf<8> conf<9> conf<10>
                + conf<11> conf<12> conf<13> conf<14> conf<15> in int0 int1 int2 out vdd vss
    Xi60 conf<2> conf'<2> in int0 vdd vss inv_ch_2
    Xi61 conf<6> conf'<6> int0 int1 vdd vss inv_ch_2
    Xi62 conf<10> conf'<10> int1 int2 vdd vss inv_ch_2
    Xi63 conf<14> conf'<14> int2 out vdd vss inv_ch_2
    Xi48 conf<0> conf'<0> in int0 vdd vss inv_ch_8
    Xi51 conf<12> conf'<12> int2 out vdd vss inv_ch_8
    Xi49 conf<4> conf'<4> int0 int1 vdd vss inv_ch_8
    Xi50 conf<8> conf'<8> int1 int2 vdd vss inv_ch_8
    Xi56 conf<1> conf'<1> in int0 vdd vss inv_ch_4
    Xi59 conf<13> conf'<13> int2 out vdd vss inv_ch_4
    Xi57 conf<5> conf'<5> int0 int1 vdd vss inv_ch_4
    Xi58 conf<9> conf'<9> int1 int2 vdd vss inv_ch_4
    Xi67 conf<15> conf'<15> int2 out vdd vss inv_ch_1
    Xi66 conf<11> conf'<11> int1 int2 vdd vss inv_ch_1
    Xi65 conf<7> conf'<7> int0 int1 vdd vss inv_ch_1
    Xi64 conf<3> conf'<3> in int0 vdd vss inv_ch_1
    Xi76 in int0 vdd vss inv_ch_8l_mod
    Xi73 int0 int1 vdd vss inv_ch_8l_mod
    Xi74 int1 int2 vdd vss inv_ch_8l_mod
    Xi75 int2 out vdd vss inv_ch_8l_mod
.ENDS

.SUBCKT nand2_dnw in0 in1 out vdd vss
    Mm0 out in0 net9 vss n_mos l=30n w=200n m=1 nf=1
    Mm1 net9 in1 vss vss n_mos l=30n w=200n m=1 nf=1
    Mm3 out in1 vdd vdd p_mos l=30n w=100n m=1 nf=1
    Mm2 out in0 vdd vdd p_mos l=30n w=100n m=1 nf=1
.ENDS

.SUBCKT buf_wide in out vdd vss
    Mm1 out int vss vss n_mos l=30n w=200n m=4 nf=1
    Mm0 int in vss vss n_mos l=30n w=100n m=1 nf=1
    Mm3 out int vdd vdd p_mos l=30n w=200n m=4 nf=1
    Mm2 int in vdd vdd p_mos l=30n w=100n m=1 nf=1
.ENDS

.SUBCKT nand5 in0 in1 in2 in3 in4 out vdd vss
    Mm4 net21 in4 vss vss n_mos l=30n w=400n m=1 nf=1
    Mm3 net22 in3 net21 vss n_mos l=30n w=400n m=1 nf=1
    Mm2 net23 in2 net22 vss n_mos l=30n w=400n m=1 nf=1
    Mm1 net24 in1 net23 vss n_mos l=30n w=400n m=1 nf=1
    Mm0 out in0 net24 vss n_mos l=30n w=400n m=1 nf=1
    Mm9 out in0 vdd vdd p_mos l=30n w=100n m=1 nf=1
    Mm8 out in4 vdd vdd p_mos l=30n w=100n m=1 nf=1
    Mm7 out in3 vdd vdd p_mos l=30n w=100n m=1 nf=1
    Mm6 out in1 vdd vdd p_mos l=30n w=100n m=1 nf=1
    Mm5 out in2 vdd vdd p_mos l=30n w=100n m=1 nf=1
.ENDS

.SUBCKT dc_rst_check dc_in int0 int1 int2 muxin0 out vdd vss
    Xi0 dc_in int0' int1 int2' muxin0 out vdd vss nand5
    Xi2 int2 int2' vdd vss inv
    Xi1 int0 int0' vdd vss inv
.ENDS

.SUBCKT dc_branch conf_dc'<0> conf_dc'<1> conf_dc'<2> conf_dc'<3> conf_dc'<4> conf_dc'<5>
                  + conf_dc'<6> conf_dc'<7> conf_dc'<8> conf_dc'<9> conf_dc'<10> conf_dc'<11>
                  + conf_dc'<12> conf_dc'<13> conf_dc'<14> conf_dc'<15> conf_dc<0> conf_dc<1>
                  + conf_dc<2> conf_dc<3> conf_dc<4> conf_dc<5> conf_dc<6> conf_dc<7> conf_dc<8>
                  + conf_dc<9> conf_dc<10> conf_dc<11> conf_dc<12> conf_dc<13> conf_dc<14>
                  + conf_dc<15> conf_enhigh conf_freqsel<0> conf_freqsel<1> dc_rst out out_raw rst
                  + rst' rst_glob rst_glob' start vdd vdd_dc vss vss_dc
    Xi4 mux_out out net19 rst rst' vdd vss first_edge
    Xi3 muxin<0> muxin<1> muxin<2> muxin<3> mux_out conf_freqsel<0> conf_freqsel<1> vdd vss mux4
    Xi5 out enable' rst rst' rst_glob rst_glob' start vdd vss enable_n
    Xi7 enable' conf_enhigh' enable vdd vss nand2
    Xi2 muxin<0> muxin<1> muxin<2> muxin<3> enable' enable vdd vss freq_scaler_248
    Xi1 conf_dc'<0> conf_dc'<1> conf_dc'<2> conf_dc'<3> conf_dc'<4> conf_dc'<5> conf_dc'<6>
        + conf_dc'<7> conf_dc'<8> conf_dc'<9> conf_dc'<10> conf_dc'<11> conf_dc'<12> conf_dc'<13>
        + conf_dc'<14> conf_dc'<15> conf_dc<0> conf_dc<1> conf_dc<2> conf_dc<3> conf_dc<4>
        + conf_dc<5> conf_dc<6> conf_dc<7> conf_dc<8> conf_dc<9> conf_dc<10> conf_dc<11> conf_dc<12>
        + conf_dc<13> conf_dc<14> conf_dc<15> dc_in dc_int0 dc_int1 dc_int2 muxin<0> vdd_dc vss_dc
        + dc_ch_4
    Xi6 conf_enhigh conf_enhigh' vdd vss inv
    Xi8 enable muxin<0> dc_in vdd_dc vss_dc nand2_dnw
    Xi9 muxin<0> out_raw vdd vss buf_wide
    Xi10 dc_in dc_int0 dc_int1 dc_int2 muxin<0> dc_rst vdd vss dc_rst_check
.ENDS

.SUBCKT dc_top conf_dc0'<0> conf_dc0'<1> conf_dc0'<2> conf_dc0'<3> conf_dc0'<4> conf_dc0'<5>
               + conf_dc0'<6> conf_dc0'<7> conf_dc0'<8> conf_dc0'<9> conf_dc0'<10> conf_dc0'<11>
               + conf_dc0'<12> conf_dc0'<13> conf_dc0'<14> conf_dc0'<15> conf_dc0<0> conf_dc0<1>
               + conf_dc0<2> conf_dc0<3> conf_dc0<4> conf_dc0<5> conf_dc0<6> conf_dc0<7> conf_dc0<8>
               + conf_dc0<9> conf_dc0<10> conf_dc0<11> conf_dc0<12> conf_dc0<13> conf_dc0<14>
               + conf_dc0<15> conf_dc1'<0> conf_dc1'<1> conf_dc1'<2> conf_dc1'<3> conf_dc1'<4>
               + conf_dc1'<5> conf_dc1'<6> conf_dc1'<7> conf_dc1'<8> conf_dc1'<9> conf_dc1'<10>
               + conf_dc1'<11> conf_dc1'<12> conf_dc1'<13> conf_dc1'<14> conf_dc1'<15> conf_dc1<0>
               + conf_dc1<1> conf_dc1<2> conf_dc1<3> conf_dc1<4> conf_dc1<5> conf_dc1<6> conf_dc1<7>
               + conf_dc1<8> conf_dc1<9> conf_dc1<10> conf_dc1<11> conf_dc1<12> conf_dc1<13>
               + conf_dc1<14> conf_dc1<15> conf_enhigh conf_fb conf_freqsel<0> conf_freqsel<1> out0
               + out1 out_raw_0 out_raw_1 rst_glob rst_glob' start_glob vdd vdd_0 vdd_1 vss vss_0
               + vss_1
    Xi11 conf_fb dc_rst_0 dc_rst_1 out0 out1 rst rst' rst_glob rst_glob' start_glob start vdd vss
         + rst_start
    Xi13 conf_dc1'<0> conf_dc1'<1> conf_dc1'<2> conf_dc1'<3> conf_dc1'<4> conf_dc1'<5> conf_dc1'<6>
         + conf_dc1'<7> conf_dc1'<8> conf_dc1'<9> conf_dc1'<10> conf_dc1'<11> conf_dc1'<12>
         + conf_dc1'<13> conf_dc1'<14> conf_dc1'<15> conf_dc1<0> conf_dc1<1> conf_dc1<2> conf_dc1<3>
         + conf_dc1<4> conf_dc1<5> conf_dc1<6> conf_dc1<7> conf_dc1<8> conf_dc1<9> conf_dc1<10>
         + conf_dc1<11> conf_dc1<12> conf_dc1<13> conf_dc1<14> conf_dc1<15> conf_enhigh
         + conf_freqsel<0> conf_freqsel<1> dc_rst_1 out1 out_raw_1 rst rst' rst_glob rst_glob' start
         + vdd vdd_1 vss vss_1 dc_branch
    Xi12 conf_dc0'<0> conf_dc0'<1> conf_dc0'<2> conf_dc0'<3> conf_dc0'<4> conf_dc0'<5> conf_dc0'<6>
         + conf_dc0'<7> conf_dc0'<8> conf_dc0'<9> conf_dc0'<10> conf_dc0'<11> conf_dc0'<12>
         + conf_dc0'<13> conf_dc0'<14> conf_dc0'<15> conf_dc0<0> conf_dc0<1> conf_dc0<2> conf_dc0<3>
         + conf_dc0<4> conf_dc0<5> conf_dc0<6> conf_dc0<7> conf_dc0<8> conf_dc0<9> conf_dc0<10>
         + conf_dc0<11> conf_dc0<12> conf_dc0<13> conf_dc0<14> conf_dc0<15> conf_enhigh
         + conf_freqsel<0> conf_freqsel<1> dc_rst_0 out0 out_raw_0 rst rst' rst_glob rst_glob' start
         + vdd vdd_0 vss vss_0 dc_branch
.ENDS

.SUBCKT edge_to_level conf_enhigh' edge enable enable' level rst rst' vdd vss
    Xi0 edge nor net10 level_loc' nand nor vdd vss dff_st_ar
    Xi1 enable' rst nor vdd vss nor2
    Xi3 level_loc' conf_enhigh' level vdd vss nand2
    Xi2 enable rst' nand vdd vss nand2
.ENDS

.SUBCKT inv_oo_dc_0 in out vdd vss
    Mm0 out in vss vss n_mos l=30n w=100n m=1 nf=1
    Mm1 out in vdd vdd p_mos l=30n w=100n m=1 nf=1
.ENDS

.SUBCKT inv_oo_dc_1 conf conf' in out vdd vss
    Mm1 net7 conf vss vss n_mos l=30n w=100n m=1 nf=1
    Mm0 out in net7 vss n_mos l=30n w=100n m=1 nf=1
    Mm3 net5 conf' vdd vdd p_mos l=30n w=100n m=1 nf=1
    Mm2 out in net5 vdd p_mos l=30n w=100n m=1 nf=1
.ENDS

.SUBCKT vdl_oo_2 conf'<0> conf'<1> conf'<2> conf'<3> conf'<4> conf'<5> conf'<6> conf'<7> conf'<8>
                 + conf'<9> conf'<10> conf'<11> conf'<12> conf'<13> conf'<14> conf'<15> conf<0>
                 + conf<1> conf<2> conf<3> conf<4> conf<5> conf<6> conf<7> conf<8> conf<9> conf<10>
                 + conf<11> conf<12> conf<13> conf<14> conf<15> in out vdd vss
    Xi1 int out vdd vss inv_oo_dc_0
    Xi0 in int vdd vss inv_oo_dc_0
    Xi17 conf<15> conf'<15> int out vdd vss inv_oo_dc_1
    Xi16 conf<7> conf'<7> in int vdd vss inv_oo_dc_1
    Xi15 conf<14> conf'<14> int out vdd vss inv_oo_dc_1
    Xi14 conf<6> conf'<6> in int vdd vss inv_oo_dc_1
    Xi13 conf<13> conf'<13> int out vdd vss inv_oo_dc_1
    Xi12 conf<5> conf'<5> in int vdd vss inv_oo_dc_1
    Xi11 conf<12> conf'<12> int out vdd vss inv_oo_dc_1
    Xi10 conf<4> conf'<4> in int vdd vss inv_oo_dc_1
    Xi9 conf<11> conf'<11> int out vdd vss inv_oo_dc_1
    Xi8 conf<3> conf'<3> in int vdd vss inv_oo_dc_1
    Xi7 conf<10> conf'<10> int out vdd vss inv_oo_dc_1
    Xi6 conf<2> conf'<2> in int vdd vss inv_oo_dc_1
    Xi5 conf<9> conf'<9> int out vdd vss inv_oo_dc_1
    Xi4 conf<1> conf'<1> in int vdd vss inv_oo_dc_1
    Xi3 conf<8> conf'<8> int out vdd vss inv_oo_dc_1
    Xi2 conf<0> conf'<0> in int vdd vss inv_oo_dc_1
.ENDS

.SUBCKT vdl_oo_3 conf'<0> conf'<1> conf'<2> conf'<3> conf'<4> conf'<5> conf'<6> conf'<7> conf'<8>
                 + conf'<9> conf'<10> conf'<11> conf'<12> conf'<13> conf'<14> conf'<15> conf<0>
                 + conf<1> conf<2> conf<3> conf<4> conf<5> conf<6> conf<7> conf<8> conf<9> conf<10>
                 + conf<11> conf<12> conf<13> conf<14> conf<15> enable out vdd vss
    Xi0 conf'<0> conf'<1> conf'<2> conf'<3> conf'<4> conf'<5> conf'<6> conf'<7> conf'<8> conf'<9>
        + conf'<10> conf'<11> conf'<12> conf'<13> conf'<14> conf'<15> conf<0> conf<1> conf<2>
        + conf<3> conf<4> conf<5> conf<6> conf<7> conf<8> conf<9> conf<10> conf<11> conf<12>
        + conf<13> conf<14> conf<15> nand out vdd vss vdl_oo_2
    Xi1 out enable nand vdd vss nand2_dnw
.ENDS

.SUBCKT buf_en enable in out vdd vss
    Mm2 net7 enable vss vss n_mos l=30n w=400n m=4 nf=1
    Mm1 out int net7 vss n_mos l=30n w=400n m=4 nf=1
    Mm0 int in vss vss n_mos l=30n w=200n m=2 nf=1
    Mm5 out int vdd vdd p_mos l=30n w=200n m=4 nf=1
    Mm4 out enable vdd vdd p_mos l=30n w=100n m=4 nf=1
    Mm3 int in vdd vdd p_mos l=30n w=200n m=2 nf=1
.ENDS

.SUBCKT vdl_branch conf'<0> conf'<1> conf'<2> conf'<3> conf'<4> conf'<5> conf'<6> conf'<7> conf'<8>
                   + conf'<9> conf'<10> conf'<11> conf'<12> conf'<13> conf'<14> conf'<15> conf<0>
                   + conf<1> conf<2> conf<3> conf<4> conf<5> conf<6> conf<7> conf<8> conf<9>
                   + conf<10> conf<11> conf<12> conf<13> conf<14> conf<15> conf_enhigh' edge enable
                   + enable' out rst rst' vdd vdd_vdl vss vss_vdl
    Xi0 conf_enhigh' edge enable enable' enable_int rst rst' vdd vss edge_to_level
    Xi1 conf'<0> conf'<1> conf'<2> conf'<3> conf'<4> conf'<5> conf'<6> conf'<7> conf'<8> conf'<9>
        + conf'<10> conf'<11> conf'<12> conf'<13> conf'<14> conf'<15> conf<0> conf<1> conf<2>
        + conf<3> conf<4> conf<5> conf<6> conf<7> conf<8> conf<9> conf<10> conf<11> conf<12>
        + conf<13> conf<14> conf<15> enable_int ro_out vdd_vdl vss_vdl vdl_oo_3
    Xi3 enable ro_out out vdd vss buf_en
.ENDS

.SUBCKT vdl_enable conf_enhigh conf_enhigh' enable enable' ready rst rst' vdd vss
    Xi1 enable_loc' conf_enhigh' enable vdd vss nand2
    Xi2 enable_loc conf_enhigh enable' vdd vss nor2
    Xi0 ready enable_loc' enable_loc rst rst' vdd vss dff_st_ar_dh
.ENDS

.SUBCKT xor2 in0 in1 out vdd vss
    Mm3 out in0' net9 vdd p_mos l=30n w=200n m=1 nf=1
    Mm2 out in0 net10 vdd p_mos l=30n w=200n m=1 nf=1
    Mm1 net9 in1 vdd vdd p_mos l=30n w=200n m=1 nf=1
    Mm0 net10 in1' vdd vdd p_mos l=30n w=200n m=1 nf=1
    Mm7 net11 in1' vss vss n_mos l=30n w=200n m=1 nf=1
    Mm6 net12 in1 vss vss n_mos l=30n w=200n m=1 nf=1
    Mm5 out in0' net11 vss n_mos l=30n w=200n m=1 nf=1
    Mm4 out in0 net12 vss n_mos l=30n w=200n m=1 nf=1
    Xi1 in0 in0' vdd vss inv
    Xi0 in1 in1' vdd vss inv
.ENDS

.SUBCKT end_detector in0 in1 rand ready rst rst' vdd vss
    Xi20 in1 ready_fb ready_int ready_int' rst rst' vdd vss dff_st_ar
    Xi19 in1 muxout rand_int net050 rst rst' vdd vss dff_st_ar
    Xi5 in1 net4 vdl1s1 net12 rst rst' vdd vss dff_st_ar
    Xi3 in0 net5 vdl0s1 net26 rst rst' vdd vss dff_st_ar
    Xi1 in1 net6 sample1 net40 rst rst' vdd vss dff_st_ar
    Xi0 in1 in0 sample0 net47 rst rst' vdd vss dff_st_ar
    Xi17 net037 net029 vdd vss inv
    Xi16 tff net037 vdd vss inv
    Xi11 net7 net4 vdd vss inv
    Xi10 vdl1s0 net7 vdd vss inv
    Xi9 net8 net5 vdd vss inv
    Xi8 vdl0s0 net8 vdd vss inv
    Xi7 net9 net6 vdd vss inv
    Xi6 sample0 net9 vdd vss inv
    Xi12 sample0 sample1 xor vdd vss xor2
    Xi13 xor vdl0s1 vdl1s1 ready' vdd vss nand3
    Xi15 in1 tff net059 rst rst' vdd vss tff_st_ar
    Xi18 net029 rand_int muxout ready_int vdd vss mux2
    Xi23 ready_int ready vdd vss buf_wide
    Xi22 rand_int rand vdd vss buf_wide
    Xi24 ready' ready_int' ready_fb vdd vss nand2
    Xi4 in1 vdl1s0 net19 rst rst' vdd vss dff_st_ar_dh
    Xi2 in0 vdl0s0 net33 rst rst' vdd vss dff_st_ar_dh
.ENDS

.SUBCKT vdl_top conf_enhigh conf_enhigh' conf_vdl0'<0> conf_vdl0'<1> conf_vdl0'<2> conf_vdl0'<3>
                + conf_vdl0'<4> conf_vdl0'<5> conf_vdl0'<6> conf_vdl0'<7> conf_vdl0'<8>
                + conf_vdl0'<9> conf_vdl0'<10> conf_vdl0'<11> conf_vdl0'<12> conf_vdl0'<13>
                + conf_vdl0'<14> conf_vdl0'<15> conf_vdl0<0> conf_vdl0<1> conf_vdl0<2> conf_vdl0<3>
                + conf_vdl0<4> conf_vdl0<5> conf_vdl0<6> conf_vdl0<7> conf_vdl0<8> conf_vdl0<9>
                + conf_vdl0<10> conf_vdl0<11> conf_vdl0<12> conf_vdl0<13> conf_vdl0<14>
                + conf_vdl0<15> conf_vdl1'<0> conf_vdl1'<1> conf_vdl1'<2> conf_vdl1'<3>
                + conf_vdl1'<4> conf_vdl1'<5> conf_vdl1'<6> conf_vdl1'<7> conf_vdl1'<8>
                + conf_vdl1'<9> conf_vdl1'<10> conf_vdl1'<11> conf_vdl1'<12> conf_vdl1'<13>
                + conf_vdl1'<14> conf_vdl1'<15> conf_vdl1<0> conf_vdl1<1> conf_vdl1<2> conf_vdl1<3>
                + conf_vdl1<4> conf_vdl1<5> conf_vdl1<6> conf_vdl1<7> conf_vdl1<8> conf_vdl1<9>
                + conf_vdl1<10> conf_vdl1<11> conf_vdl1<12> conf_vdl1<13> conf_vdl1<14>
                + conf_vdl1<15> in0 in1 out_raw_0 out_raw_1 rand ready rst rst' vdd vdd_0 vdd_1 vss
                + vss_0 vss_1
    Xi1 conf_vdl1'<0> conf_vdl1'<1> conf_vdl1'<2> conf_vdl1'<3> conf_vdl1'<4> conf_vdl1'<5>
        + conf_vdl1'<6> conf_vdl1'<7> conf_vdl1'<8> conf_vdl1'<9> conf_vdl1'<10> conf_vdl1'<11>
        + conf_vdl1'<12> conf_vdl1'<13> conf_vdl1'<14> conf_vdl1'<15> conf_vdl1<0> conf_vdl1<1>
        + conf_vdl1<2> conf_vdl1<3> conf_vdl1<4> conf_vdl1<5> conf_vdl1<6> conf_vdl1<7> conf_vdl1<8>
        + conf_vdl1<9> conf_vdl1<10> conf_vdl1<11> conf_vdl1<12> conf_vdl1<13> conf_vdl1<14>
        + conf_vdl1<15> conf_enhigh' in1 enable enable' clk rst rst' vdd vdd_1 vss vss_1 vdl_branch
    Xi0 conf_vdl0'<0> conf_vdl0'<1> conf_vdl0'<2> conf_vdl0'<3> conf_vdl0'<4> conf_vdl0'<5>
        + conf_vdl0'<6> conf_vdl0'<7> conf_vdl0'<8> conf_vdl0'<9> conf_vdl0'<10> conf_vdl0'<11>
        + conf_vdl0'<12> conf_vdl0'<13> conf_vdl0'<14> conf_vdl0'<15> conf_vdl0<0> conf_vdl0<1>
        + conf_vdl0<2> conf_vdl0<3> conf_vdl0<4> conf_vdl0<5> conf_vdl0<6> conf_vdl0<7> conf_vdl0<8>
        + conf_vdl0<9> conf_vdl0<10> conf_vdl0<11> conf_vdl0<12> conf_vdl0<13> conf_vdl0<14>
        + conf_vdl0<15> conf_enhigh' in0 enable enable' d rst rst' vdd vdd_0 vss vss_0 vdl_branch
    Xi2 conf_enhigh conf_enhigh' enable enable' ready rst rst' vdd vss vdl_enable
    Xi3 d clk rand ready rst rst' vdd vss end_detector
    Xi7 clk out_raw_1 vdd vss buf_wide
    Xi6 d out_raw_0 vdd vss buf_wide
.ENDS

.SUBCKT dc_vdl_combo conf_dc0'<0> conf_dc0'<1> conf_dc0'<2> conf_dc0'<3> conf_dc0'<4> conf_dc0'<5>
                     + conf_dc0'<6> conf_dc0'<7> conf_dc0'<8> conf_dc0'<9> conf_dc0'<10>
                     + conf_dc0'<11> conf_dc0'<12> conf_dc0'<13> conf_dc0'<14> conf_dc0'<15>
                     + conf_dc0<0> conf_dc0<1> conf_dc0<2> conf_dc0<3> conf_dc0<4> conf_dc0<5>
                     + conf_dc0<6> conf_dc0<7> conf_dc0<8> conf_dc0<9> conf_dc0<10> conf_dc0<11>
                     + conf_dc0<12> conf_dc0<13> conf_dc0<14> conf_dc0<15> conf_dc1'<0> conf_dc1'<1>
                     + conf_dc1'<2> conf_dc1'<3> conf_dc1'<4> conf_dc1'<5> conf_dc1'<6> conf_dc1'<7>
                     + conf_dc1'<8> conf_dc1'<9> conf_dc1'<10> conf_dc1'<11> conf_dc1'<12>
                     + conf_dc1'<13> conf_dc1'<14> conf_dc1'<15> conf_dc1<0> conf_dc1<1> conf_dc1<2>
                     + conf_dc1<3> conf_dc1<4> conf_dc1<5> conf_dc1<6> conf_dc1<7> conf_dc1<8>
                     + conf_dc1<9> conf_dc1<10> conf_dc1<11> conf_dc1<12> conf_dc1<13> conf_dc1<14>
                     + conf_dc1<15> conf_enhigh_dc conf_enhigh_vdl conf_enhigh_vdl' conf_fb
                     + conf_freqsel<0> conf_freqsel<1> conf_vdl0'<0> conf_vdl0'<1> conf_vdl0'<2>
                     + conf_vdl0'<3> conf_vdl0'<4> conf_vdl0'<5> conf_vdl0'<6> conf_vdl0'<7>
                     + conf_vdl0'<8> conf_vdl0'<9> conf_vdl0'<10> conf_vdl0'<11> conf_vdl0'<12>
                     + conf_vdl0'<13> conf_vdl0'<14> conf_vdl0'<15> conf_vdl0<0> conf_vdl0<1>
                     + conf_vdl0<2> conf_vdl0<3> conf_vdl0<4> conf_vdl0<5> conf_vdl0<6> conf_vdl0<7>
                     + conf_vdl0<8> conf_vdl0<9> conf_vdl0<10> conf_vdl0<11> conf_vdl0<12>
                     + conf_vdl0<13> conf_vdl0<14> conf_vdl0<15> conf_vdl1'<0> conf_vdl1'<1>
                     + conf_vdl1'<2> conf_vdl1'<3> conf_vdl1'<4> conf_vdl1'<5> conf_vdl1'<6>
                     + conf_vdl1'<7> conf_vdl1'<8> conf_vdl1'<9> conf_vdl1'<10> conf_vdl1'<11>
                     + conf_vdl1'<12> conf_vdl1'<13> conf_vdl1'<14> conf_vdl1'<15> conf_vdl1<0>
                     + conf_vdl1<1> conf_vdl1<2> conf_vdl1<3> conf_vdl1<4> conf_vdl1<5> conf_vdl1<6>
                     + conf_vdl1<7> conf_vdl1<8> conf_vdl1<9> conf_vdl1<10> conf_vdl1<11>
                     + conf_vdl1<12> conf_vdl1<13> conf_vdl1<14> conf_vdl1<15> dc_raw_0 dc_raw_1
                     + ext_start rand ready rst rst' vdd vdd_0 vdd_1 vdl_raw_0 vdl_raw_1 vdl_rst
                     + vdl_rst' vss vss_0 vss_1